RLI
  CCTOOLS-0919241042

 42 44  0  0  0  0  0  0  0  0999 V2000
   -6.0040    0.8600    0.0570 N   0  0  0  0  0
   -6.5990   -1.2560   -0.2470 O   0  0  0  0  0
   -3.3230    1.6610    0.2500 S   0  0  0  0  0
   -9.2380   -1.0000   -0.3030 C   0  0  0  0  0
   -4.1790   -0.6740   -0.0970 N   0  0  0  0  0
    8.1510    1.3070   -0.7930 O   0  0  0  0  0
    1.6610    1.3390    0.3610 S   0  0  0  0  0
   -6.9370   -0.1000   -0.1040 C   0  0  0  0  0
    0.1040   -0.6060    0.0460 N   0  0  0  0  0
    8.6300   -0.5090    0.3910 O   0  0  0  0  0
   -8.3990    0.2640   -0.1050 C   0  0  0  0  0
    2.3700   -1.3470    0.0150 N   0  0  0  0  0
   -4.6550    0.5250    0.0530 C   0  0  0  0  0
   -2.8700   -0.8070   -0.0740 C   0  0  0  0  0
   -2.1950   -2.1440   -0.2360 C   0  0  0  0  0
   -2.1740    0.3330    0.1040 C   0  0  0  0  0
   -0.7010    0.4490    0.1650 C   0  0  0  0  0
   -0.0770    1.6280    0.3460 C   0  0  0  0  0
    1.3800   -0.3820    0.1170 C   0  0  0  0  0
    3.7080   -0.9700   -0.0260 C   0  0  0  0  0
    4.6720   -1.7600    0.5960 C   0  0  0  0  0
    5.9910   -1.3910    0.5580 C   0  0  0  0  0
    6.3700   -0.2200   -0.1070 C   0  0  0  0  0
    7.7880    0.1790   -0.1510 C   0  0  0  0  0
    5.3990    0.5700   -0.7320 C   0  0  0  0  0
    4.0820    0.1930   -0.6940 C   0  0  0  0  0
   -6.2740    1.7840    0.1710 H   0  0  0  0  0
  -10.2960   -0.7370   -0.3040 H   0  0  0  0  0
   -8.9780   -1.4640   -1.2550 H   0  0  0  0  0
   -9.0390   -1.7000    0.5090 H   0  0  0  0  0
    9.0920    1.5280   -0.7940 H   0  0  0  0  0
   -8.5990    0.9630   -0.9170 H   0  0  0  0  0
   -8.6590    0.7270    0.8470 H   0  0  0  0  0
    2.1290   -2.2860   -0.0270 H   0  0  0  0  0
   -2.0010   -2.3280   -1.2920 H   0  0  0  0  0
   -1.2530   -2.1450    0.3120 H   0  0  0  0  0
   -2.8430   -2.9280    0.1560 H   0  0  0  0  0
   -0.5600    2.5880    0.4630 H   0  0  0  0  0
    4.3790   -2.6640    1.1100 H   0  0  0  0  0
    6.7380   -2.0030    1.0410 H   0  0  0  0  0
    5.6880    1.4750   -1.2460 H   0  0  0  0  0
    3.3320    0.8010   -1.1790 H   0  0  0  0  0
  1  8  1  0  0  0
  1 27  1  0  0  0
  2  8  2  0  0  0
  3 13  1  0  0  0
  4 28  1  0  0  0
  4 29  1  0  0  0
  4 30  1  0  0  0
  5 13  2  0  0  0
  6 31  1  0  0  0
  7 19  1  0  0  0
  7 18  1  0  0  0
  8 11  1  0  0  0
  9 17  1  0  0  0
 10 24  2  0  0  0
 11  4  1  0  0  0
 11 32  1  0  0  0
 11 33  1  0  0  0
 12 20  1  0  0  0
 12 19  1  0  0  0
 12 34  1  0  0  0
 13  1  1  0  0  0
 14  5  1  0  0  0
 15 14  1  0  0  0
 15 35  1  0  0  0
 15 36  1  0  0  0
 15 37  1  0  0  0
 16  3  1  0  0  0
 16 14  2  0  0  0
 17 16  1  0  0  0
 18 17  2  0  0  0
 18 38  1  0  0  0
 19  9  2  0  0  0
 20 21  1  0  0  0
 21 22  2  0  0  0
 21 39  1  0  0  0
 22 40  1  0  0  0
 23 22  1  0  0  0
 23 24  1  0  0  0
 24  6  1  0  0  0
 25 23  2  0  0  0
 25 41  1  0  0  0
 26 20  2  0  0  0
 26 25  1  0  0  0
 26 42  1  0  0  0
M  END
$$$$
